Version 4
SHEET 1 880 680
WIRE 384 -160 256 -160
WIRE 256 -112 256 -160
WIRE 384 -80 384 -160
WIRE 64 32 16 32
WIRE 176 32 144 32
WIRE 272 32 176 32
WIRE 16 64 16 32
WIRE 256 80 256 -32
WIRE 176 96 176 32
WIRE 224 96 176 96
WIRE 352 112 352 32
WIRE 352 112 288 112
WIRE 224 128 -32 128
WIRE 352 160 352 112
WIRE 256 240 256 224
WIRE 352 240 256 240
WIRE 352 272 352 240
FLAG 16 64 0
FLAG 352 272 0
FLAG 384 -80 0
FLAG -32 208 0
SYMBOL Opamps\\opamp2 256 48 R0
SYMATTR InstName U2
SYMATTR Value LMx58_LM2904
SYMBOL res 160 16 R90
WINDOW 0 0 56 VBottom 2
WINDOW 3 32 56 VTop 2
SYMATTR InstName R1
SYMATTR Value 1k
SYMBOL res 368 16 R90
WINDOW 0 0 56 VBottom 2
WINDOW 3 32 56 VTop 2
SYMATTR InstName R2
SYMATTR Value 15k
SYMBOL res 336 144 R0
SYMATTR InstName R3
SYMATTR Value 10k
SYMBOL voltage 256 -16 R180
WINDOW 0 24 96 Left 2
WINDOW 3 24 16 Left 2
WINDOW 123 0 0 Left 0
WINDOW 39 0 0 Left 0
SYMATTR InstName V1
SYMATTR Value 5
SYMBOL voltage 256 240 R180
WINDOW 0 24 96 Left 2
WINDOW 3 24 16 Left 2
WINDOW 123 0 0 Left 0
WINDOW 39 0 0 Left 0
SYMATTR InstName V2
SYMATTR Value 5
SYMBOL voltage -32 112 R0
WINDOW 123 0 0 Left 0
WINDOW 39 0 0 Left 0
SYMATTR InstName V3
SYMATTR Value 0.2
TEXT -66 296 Left 2 !.tran 10m
TEXT 96 368 Left 2 !.inc C:\\Users\\Slash\\Desktop\\LMx58_LM2904.cir
